  150

Si     1.069520    -0.823500     0.697129
Si    -0.997711    -0.880555    -0.692554
 N     2.285505    -0.074629    -0.366283
 N    -2.169550     0.001649     0.313052
 C    -3.493727     0.057780    -0.273904
Si    -1.977416     0.852000     1.903799
 C     3.616039    -0.158570     0.200115
Si     2.156010     0.715672    -1.985018
 C    -3.623241     1.671700     2.367253
 C    -1.503052    -0.389028     3.269228
 C    -0.624525     2.174817     1.733586
 H    -3.560326     2.061442     3.398902
 H    -3.849977     2.516476     1.699678
 H    -4.469001     0.968538     2.319094
 H    -0.102840     2.351255     2.688957
 H     0.131527     1.871329     0.993665
 H    -1.053708     3.126646     1.380424
 H    -1.279608     0.166101     4.198041
 H    -2.320790    -1.093777     3.493784
 H    -0.606792    -0.977235     3.014723
 C    -4.465761    -0.915879     0.073930
 C    -5.735251    -0.861375    -0.521186
 C    -6.075402     0.128450    -1.457397
 C    -5.100962     1.077684    -1.795187
 C    -3.824146     1.073762    -1.209011
 C    -4.107791    -2.058787     1.029726
 H    -6.478854    -1.612468    -0.248189
 C    -7.459518     0.173981    -2.073923
 H    -5.325008     1.836681    -2.548967
 C    -2.814209     2.149388    -1.607635
 H    -7.439370     0.662936    -3.060857
 H    -7.875622    -0.838892    -2.196049
 H    -8.162016     0.741186    -1.437039
 H    -1.837214     1.796683    -1.258251
 C    -2.693318     2.261935    -3.134099
 C    -3.021548     3.506355    -0.927307
 H    -3.276875    -1.703275     1.654186
 C    -5.258194    -2.388041     1.986338
 C    -3.580686    -3.311786     0.313190
 C    -1.909502     4.369688    -0.834169
 C    -2.024351     5.630943    -0.235447
 C    -3.261726     6.056634     0.277302
 C    -4.376034     5.211036     0.179423
 C    -4.256693     3.945290    -0.420411
 H    -0.949080     4.039544    -1.234884
 H    -1.148191     6.280455    -0.166371
 H    -3.354421     7.037508     0.748668
 H    -5.342620     5.530435     0.575716
 H    -5.124135     3.286453    -0.474875
 C    -3.195233     3.353243    -3.863669
 C    -3.061082     3.398113    -5.262021
 C    -2.418761     2.355511    -5.945436
 C    -1.915829     1.259664    -5.222222
 C    -2.058009     1.213600    -3.829892
 H    -3.678925     4.176544    -3.335168
 H    -3.455453     4.254252    -5.814557
 H    -2.309388     2.394937    -7.031642
 H    -1.414468     0.440141    -5.742804
 H    -1.683176     0.353841    -3.266584
 C    -6.232601    -3.355256     1.673853
 C    -7.300377    -3.604564     2.549028
 C    -7.404927    -2.895510     3.756483
 C    -6.432602    -1.936630     4.082325
 C    -5.369460    -1.687315     3.201814
 H    -6.140319    -3.921738     0.745287
 H    -8.047880    -4.357965     2.289802
 H    -8.233089    -3.093672     4.440456
 H    -6.498130    -1.385841     5.023481
 H    -4.614560    -0.941101     3.457378
 C    -3.117856    -4.385593     1.103335
 C    -2.663881    -5.571263     0.512944
 C    -2.654107    -5.701281    -0.887829
 C    -3.092598    -4.632969    -1.682445
 C    -3.550273    -3.444385    -1.086224
 H    -3.140028    -4.290276     2.191641
 H    -2.321734    -6.396036     1.142471
 H    -2.301396    -6.625353    -1.351148
 H    -3.077692    -4.716342    -2.771326
 H    -3.887176    -2.618327    -1.712049
 C     3.880084     1.293268    -2.526081
 C     1.490537    -0.470983    -3.321246
 C     0.983080     2.198039    -1.838656
 H     3.824991     1.700696    -3.551050
 H     4.266068     2.084864    -1.866640
 H     4.611476     0.469149    -2.525147
 H     1.229722     0.123748    -4.214895
 H     2.243066    -1.217119    -3.627550
 H     0.579909    -1.010763    -3.015984
 H     0.561678     2.483689    -2.816583
 H     0.140914     1.949897    -1.176858
 H     1.498003     3.067522    -1.400370
 C     4.452224    -1.252279    -0.154555
 C     5.736751    -1.347158     0.397450
 C     6.220499    -0.388691     1.306197
 C     5.374110     0.668532     1.665673
 C     4.082712     0.806591     1.125881
 C     3.894966    -2.342352    -1.083969
 H     6.374259    -2.187705     0.115378
 C     7.620806    -0.499647     1.876736
 H     5.710882     1.400045     2.404106
 C     3.196483     1.972174     1.568236
 H     2.166460     1.691787     1.318299
 C     3.214843     2.139004     3.093413
 C     3.452401     3.285484     0.825626
 H     3.353370    -1.824824    -1.886996
 C     4.989399    -3.156835    -1.778805
 C     2.851512    -3.195610    -0.360293
 H     7.719400     0.084607     2.805157
 H     7.879844    -1.548146     2.097100
 H     8.374909    -0.122477     1.162686
 C     2.405373     4.229282     0.774748
 C     2.574231     5.458264     0.123895
 C     3.802626     5.769115    -0.484544
 C     4.854069     4.842719    -0.428901
 C     4.680226     3.609879     0.223892
 H     1.451048     3.984945     1.246458
 H     1.747214     6.171723     0.087675
 H     3.936929     6.724166    -0.997150
 H     5.812982     5.073752    -0.898540
 H     5.497282     2.887454     0.252256
 C     3.900907     3.180789     3.740869
 C     3.895793     3.273257     5.142993
 C     3.200497     2.328306     5.911702
 C     2.513138     1.282863     5.270316
 C     2.525029     1.188300     3.872793
 H     4.429521     3.927569     3.145538
 H     4.432632     4.089464     5.632331
 H     3.192203     2.404976     7.001434
 H     1.968888     0.540683     5.859485
 H     2.008370     0.366890     3.366946
 C     5.393875    -4.431068    -1.344065
 C     6.433740    -5.113201    -1.997493
 C     7.082616    -4.530226    -3.095751
 C     6.683674    -3.258274    -3.539890
 C     5.646706    -2.581557    -2.884662
 H     4.885997    -4.896115    -0.498124
 H     6.732409    -6.103988    -1.647291
 H     7.889549    -5.062148    -3.604610
 H     7.178407    -2.795973    -4.397215
 H     5.339439    -1.590149    -3.228034
 C     1.624199    -3.481563    -0.994102
 C     0.625540    -4.216932    -0.333380
 C     0.858611    -4.699963     0.964158
 C     2.086306    -4.442326     1.594807
 C     3.069253    -3.682768     0.943348
 H     1.443836    -3.099771    -2.000941
 H    -0.330672    -4.406422    -0.822724
 H     0.076616    -5.260869     1.478982
 H     2.268281    -4.804470     2.609125
 H     4.001379    -3.432202     1.452992
