   104

C 3.398603 -2.158112 -0.799180
C 2.017829 -2.483265 -0.787580
C 1.409274 -3.167652 -1.865575
C 2.208429 -3.517066 -2.970062
C 3.575343 -3.218681 -2.994840
C 4.161772 -2.550157 -1.913127
N 1.227757 -2.109612 0.366165
C 1.371091 -2.875552 1.540743
C 1.165873 -2.360621 2.790267
C 0.874949 -0.972824 3.150969
C 0.899957 -0.592234 4.461439
C -0.074000 -3.527771 -1.868526
C -0.827286 -2.753611 -2.974691
C 4.067453 -1.412540 0.354164
C 4.847823 -0.175968 -0.141345
N 0.577815 -0.064946 2.097936
Si 0.424479 -0.536532 0.419188
N -1.410690 -1.111370 0.283385
C -2.212318 -0.649586 -0.713502
C -3.525401 -1.045907 -0.871097
C -4.104157 -1.971645 0.046470
C -3.231397 -2.483005 1.060428
C -1.929373 -2.036154 1.147016
N -5.411341 -2.344274 -0.034039
C -5.974352 -3.276561 0.948215
C 0.282925 1.317955 2.418077
C 1.296779 2.299739 2.237872
C 0.953864 3.646243 2.458596
C -0.334354 4.011690 2.869004
C -1.297110 3.025865 3.103414
C -1.008194 1.665090 2.893512
C 2.738661 1.911150 1.900781
C 3.510729 1.567157 3.198856
C -2.070025 0.625399 3.256280
C -2.384385 0.677069 4.770691
C -3.373814 0.798748 2.448464
C 3.506438 2.977566 1.095413
P 1.097416 0.852137 -1.145738
Cr -0.384676 2.700008 -2.235488
C -1.328427 1.427771 -3.262532
O -1.943641 0.661794 -3.905176
C 0.561310 4.026204 -1.230288
O 1.083915 4.902674 -0.666284
C -1.276351 4.065821 -3.113888
O -1.848010 4.928561 -3.665050
C 1.002403 2.682299 -3.551926
O 1.837137 2.665129 -4.365637
C -1.711618 2.664342 -0.885123
O -2.568497 2.682631 -0.088486
C -6.266388 -1.787781 -1.089684
C 1.728684 -4.333883 1.351369
C -0.292370 -5.049060 -2.036891
C 4.990619 -2.353057 1.163298
H 0.712536 0.433778 4.769014
H -2.292970 3.306980 3.451292
H -3.819093 1.789384 2.632279
H -3.128166 -0.097250 5.027356
H -1.477578 0.499300 5.366430
H -2.803323 1.657816 5.049052
H 1.158779 -1.323553 5.226310
H 1.263375 -3.046896 3.631415
H 1.776078 -4.846518 2.322216
H -1.662747 -0.370645 3.046332
H -3.196963 0.711077 1.370352
H -4.106352 0.031781 2.754387
H -1.369152 -5.285193 -1.995325
H -4.090434 -0.618746 -1.695175
H -3.574916 -3.215788 1.786521
H -1.248117 -2.407843 1.911164
H -5.891519 -2.070335 -2.088291
H -7.283960 -2.178020 -0.971257
H -6.298903 -0.687184 -1.024876
H -5.839596 -2.890290 1.972782
H -7.047050 -3.395772 0.756973
H -5.489619 -4.265779 0.877340
H -0.580695 5.065426 3.016850
H 1.701569 4.421442 2.295989
H 3.563017 2.449998 3.859184
H 3.689729 3.885535 1.693377
H 2.961578 3.261429 0.185600
H 1.011673 -0.209503 -2.104467
H 0.981610 -4.834878 0.712901
H 2.699921 -4.443524 0.844595
H 2.713039 1.004086 1.286083
H 3.023410 0.748127 3.747132
H 4.542088 1.262549 2.949903
H 4.485603 2.568544 0.802794
H 1.749733 -4.034545 -3.814932
H 4.182452 -3.503034 -3.857195
H 5.227115 -2.312925 -1.936567
H 3.286936 -1.055162 1.037781
H 5.791958 -2.757859 0.522578
H 5.457359 -1.798058 1.993214
H 4.426587 -3.197583 1.588360
H 4.180228 0.504290 -0.691182
H 5.267338 0.364731 0.722177
H 5.682880 -0.465077 -0.799374
H -0.494934 -3.234927 -0.897679
H 0.222867 -5.618501 -1.246499
H 0.093789 -5.395576 -3.009040
H -0.466358 -3.056091 -3.971418
H -1.909036 -2.960137 -2.921553
H -0.675711 -1.669092 -2.879627
H -1.746728 0.069818 -1.378063
