68
CU-1425   0.00
Ge       2.95920   1.04713  -0.18529
N        1.40186  -0.07167  -0.74175
N       -0.58832  -1.34396  -0.25443
N       -0.19282   0.41281   0.98728
F        3.61877  -0.32439   0.84326
C        0.31604  -0.30867  -0.08108
C       -1.62668  -1.22949   0.66889
C       -1.38822  -0.15856   1.42536
C       -0.54864  -2.35020  -1.28002
C        0.24586   1.73846   1.32877
C       -0.12721   2.79470   0.49391
C        1.18002   4.25693   1.89206
C        0.26040  -3.46822  -1.08448
C        1.02946   1.92000   2.47101
C        1.13191  -3.58849   0.14454
C       -2.21585  -0.93554  -2.59708
C        0.36556   4.05957   0.79719
C       -1.35758  -2.16831  -2.40480
C        1.48917   3.21402   2.73115
C        0.31394  -4.10006   1.33276
C        1.32553   0.78177   3.42388
C        0.22557  -4.45052  -2.07160
C       -1.08569   2.59685  -0.67412
C        2.33900  -4.49940  -0.07168
C        0.42112   0.88296   4.64374
C       -0.58138  -4.29704  -3.18534
C        2.79471   0.75513   3.87168
C       -0.55381   3.10231  -1.98938
C       -1.34938  -3.18482  -3.35735
C       -3.70917  -1.30148  -2.52575
C       -1.89732  -0.22022  -3.90776
C       -2.43171   3.22167  -0.34019
H       -1.93393   0.15884   2.13526
H       -2.37295  -1.81239   0.74534
H        0.13808   4.79682   0.24291
H        1.53066   5.12218   2.06783
H        2.02355   3.37483   3.49996
H       -1.23263   1.61264  -0.77291
H       -1.19057   2.88866  -2.70304
H        0.30661   2.67374  -2.18021
H       -0.43140   4.07342  -1.94074
H       -2.33654   4.19581  -0.29128
H       -2.74511   2.88030   0.52333
H       -3.08070   2.99146  -1.03747
H        1.12504  -0.07886   2.95577
H        3.37669   0.76141   3.08323
H        2.96210  -0.05650   4.39480
H        2.98261   1.54346   4.42269
H        0.61779   1.71174   5.12835
H        0.57898   0.11524   5.23202
H       -0.51579   0.88707   4.35633
H       -1.88610  -3.10148  -4.13676
H       -0.60024  -4.98155  -3.84381
H        0.75933  -5.23101  -1.97962
H       -2.01847  -0.30420  -1.84713
H       -3.92192  -1.94524  -3.23335
H       -4.24975  -0.49300  -2.64632
H       -3.90667  -1.69921  -1.65213
H       -2.05778  -0.82845  -4.65924
H       -0.95775   0.05839  -3.90789
H       -2.47194   0.56855  -3.99745
H        1.47085  -2.67588   0.37314
H        2.04017  -5.43139  -0.12163
H        2.96406  -4.39641   0.67606
H        2.78719  -4.25477  -0.90815
H       -0.41871  -3.47607   1.51785
H        0.89149  -4.16891   2.12148
H       -0.05468  -4.98275   1.11975
